
Circuit: simulation - total response

Doing analysis at TEMP = 27.000000 and TNOM = 27.000000


No. of Data Rows : 1
op_TAB
@c[i] = 0.000000e+00
@gib[i] = 0.000000e+00
@r1[i] = 0.000000e+00
@r2[i] = 0.000000e+00
@r3[i] = 0.000000e+00
@r4[i] = 0.000000e+00
@r5[i] = 0.000000e+00
@r6[i] = 0.000000e+00
@r7[i] = 0.000000e+00
v(1) = 0.000000e+00
v(2) = 0.000000e+00
v(3) = 0.000000e+00
v(4) = 0.000000e+00
v(5) = 0.000000e+00
v(6) = 0.000000e+00
v(7) = 0.000000e+00
v(8) = 0.000000e+00
hvd#branch = 0.000000e+00
vo#branch = 0.000000e+00
vs#branch = 0.000000e+00
op_END
********************************************
Transient analysis
********************************************
Doing analysis at TEMP = 27.000000 and TNOM = 27.000000


Initial Transient Solution
--------------------------

Node                                   Voltage
----                                   -------
1                                            0
2                                 -5.25379e-13
3                                 -1.60979e-12
5                                 -4.51757e-13
6                                      8.61856
4                                  1.80862e-13
7                                  1.80862e-13
8                                  2.73047e-13
hvd#branch                          0.00278376
vo#branch                         -8.95709e-17
vs#branch                         -5.12078e-16


No. of Data Rows : 2008

The file "trans_tot.ps" may be printed on a postscript printer.
trans_tot_FIG
********************************************
Frequency analysis
********************************************
Doing analysis at TEMP = 27.000000 and TNOM = 27.000000


No. of Data Rows : 701

The file "db.ps" may be printed on a postscript printer.
b_FIG

The file "ph.ps" may be printed on a postscript printer.
ph_FIG
ngspice-31 done
