
Circuit: simulation t<0

Doing analysis at TEMP = 27.000000 and TNOM = 27.000000

Warning: vx: has no value, DC 0 assumed

No. of Data Rows : 1
op_TAB
@gib[i] = 0.000000e+00
@r1[i] = 0.000000e+00
@r2[i] = 0.000000e+00
@r3[i] = 0.000000e+00
@r4[i] = 0.000000e+00
@r5[i] = 0.000000e+00
@r6[i] = 0.000000e+00
@r7[i] = 0.000000e+00
v(1) = 0.000000e+00
v(2) = 0.000000e+00
v(3) = 0.000000e+00
v(4) = 0.000000e+00
v(5) = 0.000000e+00
v(6) = 0.000000e+00
v(7) = 0.000000e+00
v(8) = 0.000000e+00
hvd#branch = 0.000000e+00
vo#branch = 0.000000e+00
vs#branch = 0.000000e+00
vx#branch = 0.000000e+00
op_END
ngspice-31 done
