
Circuit: simulation vs=0

Doing analysis at TEMP = 27.000000 and TNOM = 27.000000


No. of Data Rows : 1
op_TAB
@gib[i] = 6.327120e-18
@r1[i] = -6.04063e-18
@r2[i] = 6.327120e-18
@r3[i] = 2.864858e-19
@r4[i] = 1.289989e-18
@r5[i] = -2.78376e-03
@r6[i] = 1.301043e-18
@r7[i] = 2.625374e-18
v(1) = 0.000000e+00
v(2) = 6.197538e-15
v(3) = 1.898958e-14
v(4) = -2.62707e-15
v(5) = 5.329071e-15
v(6) = 8.618561e+00
v(7) = -2.62707e-15
v(8) = -5.32907e-15
hvd#branch = 2.783760e-03
vo#branch = 1.301043e-18
vs#branch = 6.040635e-18
vx#branch = -2.78376e-03
op_END
ngspice-31 done
