
Circuit: *

Doing analysis at TEMP = 27.000000 and TNOM = 27.000000


No. of Data Rows : 1
op_TAB
@gib[i] = -2.26373e-04
@id[current] = 1.011815e-03
@r1[i] = 2.161226e-04
@r2[i] = -2.26373e-04
@r3[i] = -1.02499e-05
@r4[i] = 1.194589e-03
@r5[i] = -1.23819e-03
@r6[i] = 9.784660e-04
@r7[i] = 9.784660e-04
v(1) = 5.125627e+00
v(2) = 4.903891e+00
v(3) = 4.446215e+00
v(4) = 8.768409e+00
v(5) = -2.98275e+00
v(6) = -1.97572e+00
v(7) = 4.934963e+00
v(8) = -1.97572e+00
hvc#branch = 3.334892e-05
va#branch = -2.16123e-04
vo#branch = 9.784660e-04
op_END
Note: No ".plot", ".print", or ".fourier" lines; no simulations run
