
Circuit: .options savecurrents

Doing analysis at TEMP = 27.000000 and TNOM = 27.000000


No. of Data Rows : 1
Doing analysis at TEMP = 27.000000 and TNOM = 27.000000


Initial Transient Solution
--------------------------

Node                                   Voltage
----                                   -------
vcc                                         12
in                                           0
in2                                          0
base                                   1.58092
coll                                    3.8942
emit                                  0.872632
emit2                                  4.70867
out                                          0
vin#branch                                   0
vcc#branch                          -0.0811493


No. of Data Rows : 1008

The file "vo1.ps" may be printed on a postscript printer.
Doing analysis at TEMP = 27.000000 and TNOM = 27.000000


No. of Data Rows : 71

The file "vcolldb.ps" may be printed on a postscript printer.

The file "vcollp.ps" may be printed on a postscript printer.

The file "voutdb.ps" may be printed on a postscript printer.

The file "voutp.ps" may be printed on a postscript printer.
gain                =  4.045609e+00 at=  1.000000e+07
gaindb              =  3.790405e+01 at=  1.258925e+05
low                 =  8.880418e+03
up                  =  1.603742e+06
merit_TAB
merit = 3.452742e-01
cost = 2.104308e+03
merit_END
gain_TAB
gaindb = 3.790405e+01
gain_END
(vdb(coll)[40]-vdb(emit)[40])-(vdb(base)[40]-vdb(emit)[40]) = 4.074745e+01
vdb(emit2)[40]-(vdb(emit2)[40]-vdb(coll)[40]) = 3.935594e+01
results_TAB
low = 8.880418e+03
up = 1.603742e+06
bandwidth = 1.594862e+06
results_END
inputZ_TAB
zi = 5.638527e-01,-8.44302e-02
inputZ_END
ngspice-31 done
