
Circuit: simulation 10 periods

Doing analysis at TEMP = 27.000000 and TNOM = 27.000000


No. of Data Rows : 1
********************************************
Transient analysis
********************************************
Doing analysis at TEMP = 27.000000 and TNOM = 27.000000


Initial Transient Solution
--------------------------

Node                                   Voltage
----                                   -------
1                                  3.12643e-14
2                                  3.12643e-14
4                                 -2.60106e-22
5                                 -2.60106e-22
3                                  6.25286e-14
vs#branch                                    0


No. of Data Rows : 1001
op_TAB
mean(v(5)) = 1.233049e+01
maximum(v(5))-minimum(v(5)) = 1.076822e-02
op_END

The file "ende.ps" may be printed on a postscript printer.
ende_FIG

The file "deviation.ps" may be printed on a postscript printer.
deviation_FIG
ngspice-31 done
