
Circuit: simulation 10 periods

Doing analysis at TEMP = 27.000000 and TNOM = 27.000000


No. of Data Rows : 1
********************************************
Transient analysis
********************************************
Doing analysis at TEMP = 27.000000 and TNOM = 27.000000


Initial Transient Solution
--------------------------

Node                                   Voltage
----                                   -------
1                                  3.38375e-18
2                                  3.38375e-18
4                                 -2.97762e-26
5                                 -3.19384e-26
3                                   6.7675e-18
vs#branch                                    0


No. of Data Rows : 1001
op_TAB
mean(v(5)) = 9.518354e+00
maximum(v(5))-minimum(v(5)) = 9.378200e+00
op_END

The file "ende.ps" may be printed on a postscript printer.
ende_FIG

The file "deviation.ps" may be printed on a postscript printer.
deviation_FIG
ngspice-31 done
