
Circuit: *-----------------------------------------------------------------------------

false = 0.000000e+00
true = 1.000000e+00
boltz = 1.380649e-23
c = 2.997925e+08
e = 2.718282e+00
echarge = 1.602177e-19
i = 0.000000e+00,1.000000e+00
kelvin = -2.73150e+02
no = 0.000000e+00
pi = 3.141593e+00
planck = 6.626070e-34
yes = 1.000000e+00
Reducing trtol to 1 for xspice 'A' devices
Doing analysis at TEMP = 27.000000 and TNOM = 27.000000


Initial Transient Solution
--------------------------

Node                                   Voltage
----                                   -------
vcc                                          5
vee                                         -5
in                                           0
x1.11                                  4.96035
x1.12                                  4.96031
x1.6                               -0.00111217
x1.7                                   4.41552
n3                                     4.41479
x1.53                                        4
x1.54                                       -4
x1.90                                0.0146744
x1.91                                       40
x1.92                                      -40
x1.99                                        0
x1.10                                -0.607708
inv_in                            -3.98562e-05
x1.13                                -0.593841
x1.14                                -0.593827
x1.9                                         0
x1.8                                   4.41552
n2                                   0.0146671
out                                    4.41479
h.x1.hlim#branch                  -2.93515e-14
v.x1.vlim#branch                   1.46744e-05
v.x1.vln#branch                   -4.00182e-11
v.x1.vlp#branch                   -3.99861e-11
v.x1.ve#branch                     8.41603e-12
v.x1.vc#branch                    -7.37465e-09
v.x1.vb#branch                    -1.11217e-08
vin#branch                                   0
vee#branch                         0.000565821
vcc#branch                        -0.000565608
a$poly$e.x1.egnd#branch_1_0       -1.47205e-05


No. of Data Rows : 1008
ERROR: (internal)  This operation is not defined for display type printf.
Can't open viewport for graphics.

The file "vo1.ps" may be printed on a postscript printer.
vo1_FIG
Reducing trtol to 1 for xspice 'A' devices
Doing analysis at TEMP = 27.000000 and TNOM = 27.000000


No. of Data Rows : 71
ERROR: (internal)  This operation is not defined for display type printf.
Can't open viewport for graphics.

The file "vdb.ps" may be printed on a postscript printer.
vdb_FIG
ERROR: (internal)  This operation is not defined for display type printf.
Can't open viewport for graphics.

The file "vp.ps" may be printed on a postscript printer.
vp_FIG
gaindb = 4.850966e+01
gain_dev_db = 8.509660e+00
low                 =  4.539496e+02
up                  =  1.985077e+03
cost = 6.733236e+05
merit = 1.759913e-10
merit_TAB
Merit = 1.75991E-10
Cost = 673324 MU
merit_END
gain_TAB
Output Voltage Gain dB = 266.369
Central Freq = 949.276
Low CO Freq = 453.95
Up CO Freq = 1985.08
Gain Deviation = 166.369
Gain Deviation dB = 8.50966
Central Freq Deviation =50.724
Bandwidth = 1531.13
gain_END
Reducing trtol to 1 for xspice 'A' devices
Doing analysis at TEMP = 27.000000 and TNOM = 27.000000


No. of Data Rows : 1
	Node                                  Voltage
	----                                  -------
	----	-------
	out                              4.414787e+00
	n2                               1.466706e-02
	x1.8                             4.415520e+00
	x1.9                             0.000000e+00
	x1.14                            -5.93827e-01
	x1.13                            -5.93841e-01
	inv_in                           -3.98562e-05
	x1.10                            -6.07708e-01
	x1.99                            0.000000e+00
	x1.92                            -4.00000e+01
	x1.91                            4.000000e+01
	x1.90                            1.467445e-02
	x1.54                            -4.00000e+00
	x1.53                            4.000000e+00
	n3                               4.414787e+00
	x1.7                             4.415520e+00
	x1.6                             -1.11217e-03
	x1.12                            4.960313e+00
	x1.11                            4.960353e+00
	in                               0.000000e+00
	vee                              -5.00000e+00
	vcc                              5.000000e+00

	Source	Current
	------	-------

	@c2[i]                           0.000000e+00
	@r2[i]                           0.000000e+00
	@r4[i]                           1.466706e-05
	@r3[i]                           -1.46671e-05
	@r1[i]                           -7.97125e-08
	@c1[i]                           0.000000e+00
	@r.x1.rp[i]                      5.506608e-04
	@r.x1.ro2[i]                     4.415520e-02
	@r.x1.ro1[i]                     1.467445e-05
	@r.x1.ree[i]                     -4.60734e-08
	@r.x1.re2[i]                     7.560753e-06
	@r.x1.re1[i]                     7.553174e-06
	@r.x1.rc2[i]                     7.480965e-06
	@r.x1.rc1[i]                     7.473466e-06
	@r.x1.r2[i]                      -1.11217e-08
	@q.x1.q2[is]                     4.960313e-12
	@q.x1.q2[ib]                     7.979249e-08
	@q.x1.q2[ie]                     -7.56076e-06
	@q.x1.q2[ic]                     7.480960e-06
	@q.x1.q1[is]                     4.960353e-12
	@q.x1.q1[ib]                     7.971250e-08
	@q.x1.q1[ie]                     -7.55318e-06
	@q.x1.q1[ic]                     7.473461e-06
	@g.x1.gcm[i]                     -3.62255e-09
	@g.x1.ga[i]                      7.499116e-09
	@d.x1.dp[id]                     -1.00008e-11
	@d.x1.dln[id]                    -4.00155e-11
	@d.x1.dlp[id]                    -3.99861e-11
	@d.x1.de[id]                     -8.41559e-12
	@d.x1.dc[id]                     7.374650e-09
	@c.x1.c2[i]                      0.000000e+00
	@c.x1.c1[i]                      0.000000e+00
	a$poly$e.x1.egnd#branch_1_0      -1.47205e-05
	vcc#branch                       -5.65608e-04
	vee#branch                       5.658208e-04
	vin#branch                       0.000000e+00
	v.x1.vb#branch                   -1.11217e-08
	v.x1.vc#branch                   -7.37465e-09
	v.x1.ve#branch                   8.416030e-12
	v.x1.vlp#branch                  -3.99861e-11
	v.x1.vln#branch                  -4.00182e-11
	v.x1.vlim#branch                 1.467445e-05
	h.x1.hlim#branch                 -2.93515e-14

 BJT models (Bipolar Junction Transistor)
      model                 x1:qx

       type                   npn
       tnom                    27
         is                 8e-16
         bf                 93.75
         nf                     1
        vaf                     0
        ikf                     0
        ise                     0
         ne                   1.5
         br                     1
         nr                     1
        var                     0
        ikr                     0
        isc                     0
         nc                     2
         rb                     0
        irb                     0
        rbm                     0
         re                     0
         rc                     0
        cje                     0
        vje                  0.75
        mje                  0.33
         tf                     0
        xtf                     0
        vtf                     0
        itf                     0
        ptf                     0
        cjc                     0
        vjc                  0.75
        mjc                  0.33
       xcjc                     1
         tr                     0
        cjs                     0
        vjs                  0.75
        mjs                     0
        xtb                     0
         eg                  1.11
        xti                     3
         fc                   0.5
         kf                     0
         af                     0
        iss                     0
         ns                     1
       tlev                     0
      tlevc                     0
       tbf1                     0
       tbf2                     0
       tbr1                     0
       tbr2                     0
      tikf1                     0
      tikf2                     0
      tikr1                     0
      tikr2                     0
      tirb1                     0
      tirb2                     0
       tnc1                     0
       tnc2                     0
       tne1                     0
       tne2                     0
       tnf1                     0
       tnf2                     0
       tnr1                     0
       tnr2                     0
       trb1                     0
       trb2                     0
       trc1                     0
       trc2                     0
       tre1                     0
       tre2                     0
       trm1                     0
       trm2                     0
      tvaf1                     0
      tvaf2                     0
      tvar1                     0
      tvar2                     0
        ctc                     0
        cte                     0
        cts                     0
       tvjc                     0
       tvje                     0
       tvjs                     0
      titf1                     0
      titf2                     0
       ttf1                     0
       ttf2                     0
       ttr1                     0
       ttr2                     0
      tmje1                     0
      tmje2                     0
      tmjc1                     0
      tmjc2                     0
      tmjs1                     0
      tmjs2                     0
       tns1                     0
       tns2                     0
        nkf                   0.5
       tis1                     0
       tis2                     0
      tise1                     0
      tise2                     0
      tisc1                     0
      tisc2                     0
    vbe_max                 1e+99
    vbc_max                 1e+99
    vce_max                 1e+99

 Capacitor models (Fixed capacitor)
      model                     C

        cap                     0
         cj                     0
       cjsw                     0
       defw                 1e-05
       defl                     0
     narrow                     0
      short                     0
        del                     0
        tc1                     0
        tc2                     0
         di                     0
      thick                     0
     bv_max                 1e+99

 Diode models (Junction Diode model)
      model                 x1:dx

      level                     1
         is                 8e-16
        jsw                     0
         rs                     1
        trs                     0
       trs2                     0
          n                     1
         ns                     1
         tt                     0
       ttt1                     0
       ttt2                     0
        cjo                     0
         vj                     1
          m                   0.5
        tm1                     0
        tm2                     0
        cjp                     0
        php                     1
       mjsw                  0.33
        ikf                     0
        ikr                     0
        nbv                     1
       area                     1
         pj                     0
       tlev                     0
      tlevc                     0
         eg                  1.11
        xti                     3
        cta                     0
        ctp                     0
        tpb                     0
       tphp                     0
       jtun                     0
     jtunsw                     0
       ntun                    30
     xtitun                     3
        keg                     1
         kf                     0
         af                     1
         fc                   0.5
        fcs                   0.5
         bv                     0
        ibv                 0.001
        tcv                     0
     fv_max                 1e+99
     bv_max                 1e+99
        isr                 1e-14
         nr                     1

 Resistor models (Simple linear resistor)
      model                     R

        rsh                     0
     narrow                     0
      short                     0
        tc1                     0
        tc2                     0
        tce                     0
       defw                 1e-05
          l                 1e-05
         kf                     0
         af                     0
          r                     0
     bv_max                 1e+99
         lf                     1
         wf                     1
         ef                     1

 spice2poly models (2G6 compatible polynomial controlled source)
      model        a$poly$f.x1.fb      a$poly$e.x1.egnd

       coef                     0                     0
                        1.061e+07                   0.5
                           -1e+07                   0.5
                            1e+07          
                            1e+07          
                           -1e+07          

 BJT: Bipolar Junction Transistor
     device               q.x1.q2               q.x1.q1
      model                 x1:qx                 x1:qx
         ic           7.48096e-06           7.47346e-06
         ib           7.97925e-08           7.97125e-08
         ie          -7.56076e-06          -7.55318e-06
        vbe              0.593827              0.593801
        vbc              -4.96031              -4.96039
         gm           0.000289232           0.000288942
        gpi           3.08514e-06           3.08205e-06
        gmu                 1e-12                 1e-12
         gx                     0                     0
         go           9.22122e-23           9.22063e-23
        cpi                     0                     0
        cmu                     0                     0
        cbx                     0                     0
       csub                     0                     0

 Capacitor: Fixed capacitor
     device                    c2                    c1               c.x1.c2
      model                     C                     C                     C
capacitance               1.1e-07               2.2e-07                 3e-11
      dtemp                     0                     0                     0
     bv_max                 1e+99                 1e+99                 1e+99
          i                     0                     0                     0
          p                     0                     0                    -0

 Capacitor: Fixed capacitor
     device               c.x1.c1
      model                     C
capacitance             8.661e-12
      dtemp                     0
     bv_max                 1e+99
          i                     0
          p                     0

 CCVS: Linear current controlled current source
     device             h.x1.hlim
          i          -2.93515e-14
          v             0.0146744
          p          -4.30717e-16

 Diode: Junction Diode model
     device               d.x1.dp              d.x1.dln              d.x1.dlp
      model                 x1:dx                 x1:dx                 x1:dx
         vd                   -10              -40.0147              -39.9853
         id          -1.00008e-11          -4.00155e-11          -3.99861e-11
         gd                 1e-12                 1e-12                 1e-12
         cd                     0                     0                     0

 Diode: Junction Diode model
     device               d.x1.de               d.x1.dc
      model                 x1:dx                 x1:dx
         vd              -8.41479              0.414787
         id          -8.41559e-12           7.37465e-09
         gd                 1e-12           2.85107e-07
         cd                     0                     0

 Isource: Independent current source
     device              i.x1.iee
         dc             1.516e-05
          m                     1
      acmag                     0
      pulse         -
        sin         -
        exp         -
        pwl         -
       sffm         -
         am         -
    trnoise         -
   trrandom         -
          v              -4.39229
          p           6.65871e-05
    current             1.516e-05

 Resistor: Simple linear resistor
     device                    r2                    r4                    r3
      model                     R                     R                     R
 resistance                  1000                  1000                300000
         ac                  1000                  1000                300000
      dtemp                     0                     0                     0
     bv_max                 1e+99                 1e+99                 1e+99
      noisy                     1                     1                     1
          i                     0           1.46671e-05          -1.46671e-05
          p                     0           2.15123e-07           6.45368e-05

 Resistor: Simple linear resistor
     device                    r1               r.x1.rp              r.x1.ro2
      model                     R                     R                     R
 resistance                   500                 18160                   100
         ac                   500                 18160                   100
      dtemp                     0                     0                     0
     bv_max                 1e+99                 1e+99                 1e+99
      noisy                     1                     1                     1
          i          -7.97125e-08           0.000550661             0.0441552
          p           3.17704e-12            0.00550661              0.194968

 Resistor: Simple linear resistor
     device              r.x1.ro1              r.x1.ree              r.x1.re2
      model                     R                     R                     R
 resistance                    50             1.319e+07                  1836
         ac                    50             1.319e+07                  1836
      dtemp                     0                     0                     0
     bv_max                 1e+99                 1e+99                 1e+99
      noisy                     1                     1                     1
          i           1.46744e-05          -4.60734e-08           7.56075e-06
          p            1.0767e-08           2.79992e-08           1.04955e-07

 Resistor: Simple linear resistor
     device              r.x1.re1              r.x1.rc2              r.x1.rc1
      model                     R                     R                     R
 resistance                  1836                  5305                  5305
         ac                  1836                  5305                  5305
      dtemp                     0                     0                     0
     bv_max                 1e+99                 1e+99                 1e+99
      noisy                     1                     1                     1
          i           7.55317e-06           7.48097e-06           7.47347e-06
          p           1.04745e-07           2.96893e-07           2.96299e-07

 Resistor: Simple linear resistor
     device               r.x1.r2
      model                     R
 resistance                100000
         ac                100000
      dtemp                     0
     bv_max                 1e+99
      noisy                     1
          i          -1.11217e-08
          p           1.23691e-11

 VCCS: Voltage controlled current source
     device              g.x1.gcm               g.x1.ga
          m                     0                     0
          i          -3.62255e-09           7.49912e-09
          v            0.00111217           -0.00111217
          p          -4.02888e-12          -8.34027e-12

 Vsource: Independent voltage source
     device              v.x1.vln              v.x1.vlp             v.x1.vlim
         dc                    40                    40                     0
      acmag                     0                     0                     0
      pulse         -         -         -
        sin         -         -         -
        exp         -         -         -
        pwl         -         -         -
       sffm         -         -         -
         am         -         -         -
    trnoise         -         -         -
   trrandom         -         -         -
          i          -4.00182e-11          -3.99861e-11           1.46744e-05
          p           1.60073e-09           1.59945e-09                    -0

 Vsource: Independent voltage source
     device               v.x1.ve               v.x1.vc               v.x1.vb
         dc                     1                     1                     0
      acmag                     0                     0                     0
      pulse         -         -         -
        sin         -         -         -
        exp         -         -         -
        pwl         -         -         -
       sffm         -         -         -
         am         -         -         -
    trnoise         -         -         -
   trrandom         -         -         -
          i           8.41603e-12          -7.37465e-09          -1.11217e-08
          p          -8.41603e-12           7.37465e-09                     0

 Vsource: Independent voltage source
     device                   vin                   vee                   vcc
         dc                     0                    -5                     5
      acmag                     1                     0                     0
      pulse                     0         -         -
                             0.01                    
                             1000                    
        sin                     0         -         -
                             0.01                    
                             1000                    
        exp                     0         -         -
                             0.01                    
                             1000                    
        pwl                     0         -         -
                             0.01                    
                             1000                    
       sffm                     0         -         -
                             0.01                    
                             1000                    
         am                     0         -         -
                             0.01                    
                             1000                    
    trnoise                     0         -         -
                             0.01                    
                             1000                    
   trrandom                     0         -         -
                             0.01                    
                             1000                    
          i                     0           0.000565821          -0.000565608
          p                    -0             0.0028291            0.00282804

 spice2poly: 2G6 compatible polynomial controlled source
     device        a$poly$f.x1.fb      a$poly$e.x1.egnd
      model        a$poly$f.x1.fb      a$poly$e.x1.egnd
    acgains             1.061e+07                   0.5
                           -1e+07                   0.5
                            1e+07          
                            1e+07          
                           -1e+07          


Total analysis time (seconds) = 0.069

Total elapsed time (seconds) = 0.087 

Total DRAM available = 4767.438 MB.
DRAM currently available = 2899.289 MB.
Total ngspice program size =   23.707 MB.
Resident set size =   11.977 MB.
Shared ngspice pages =    8.289 MB.
Text (code) pages =    5.070 MB.
Stack = 0 bytes.
Library pages =    3.965 MB.

