
Circuit: *-----------------------------------------------------------------------------

false = 0.000000e+00
true = 1.000000e+00
boltz = 1.380649e-23
c = 2.997925e+08
e = 2.718282e+00
echarge = 1.602177e-19
i = 0.000000e+00,1.000000e+00
kelvin = -2.73150e+02
no = 0.000000e+00
pi = 3.141593e+00
planck = 6.626070e-34
yes = 1.000000e+00
Reducing trtol to 1 for xspice 'A' devices
Doing analysis at TEMP = 27.000000 and TNOM = 27.000000


Initial Transient Solution
--------------------------

Node                                   Voltage
----                                   -------
vcc                                          5
vee                                         -5
in                                           0
x1.11                                  4.96037
x1.12                                  4.96029
x1.6                               -0.00186134
x1.7                                    4.4344
n3                                     4.43367
x1.53                                        4
x1.54                                       -4
x1.90                                0.0145519
x1.91                                       40
x1.92                                      -40
x1.99                                        0
x1.10                                -0.607728
inv_in                            -7.96725e-05
x1.13                                -0.593867
x1.14                                 -0.59384
x1.9                                         0
x1.8                                    4.4344
n2                                   0.0726831
out                                    4.43367
h.x1.hlim#branch                  -2.91052e-14
v.x1.vlim#branch                   1.45519e-05
v.x1.vln#branch                   -4.00181e-11
v.x1.vlp#branch                   -3.99862e-11
v.x1.ve#branch                     8.43491e-12
v.x1.vc#branch                    -1.53045e-08
v.x1.vb#branch                    -1.86134e-08
vin#branch                                   0
vee#branch                         0.000565821
vcc#branch                          -0.0005656
a$poly$e.x1.egnd#branch_1_0        -1.4598e-05


No. of Data Rows : 1008
ERROR: (internal)  This operation is not defined for display type printf.
Can't open viewport for graphics.

The file "vo1.ps" may be printed on a postscript printer.
vo1_FIG
Reducing trtol to 1 for xspice 'A' devices
Doing analysis at TEMP = 27.000000 and TNOM = 27.000000


No. of Data Rows : 71
ERROR: (internal)  This operation is not defined for display type printf.
Can't open viewport for graphics.

The file "vdb.ps" may be printed on a postscript printer.
vdb_FIG
ERROR: (internal)  This operation is not defined for display type printf.
Can't open viewport for graphics.

The file "vp.ps" may be printed on a postscript printer.
vp_FIG
gaindb = 4.654686e+01
gain_dev_db = 6.546864e+00
low                 =  3.831730e+02
up                  =  2.010036e+03
cost = 6.733236e+05
cost_opam = 1.332329e+04
merit = 1.078678e-10
cost_TAB
Cost OP-AMP = 13323.3 MU
Cost Resistors = 0.323 MU
Cost Capacitors = 660000 MU
TOTAL Cost = 673324 MU
cost_END
merit_TAB
Merit = 1.07868E-10
merit_END
gain_TAB
Output Voltage Gain [Linear] = 212.492
Output Voltage Gain [dB] = 46.5469
Gain Deviation = 112.492
Gain Deviation dB = 6.54686
gain_END
freq_TAB
Low CO Freq = 383.173
Up CO Freq = 2010.04
Central Freq = 877.606
Bandwidth = 1626.86
freq_END
freq_dev_TAB
Central Freq Deviation =122.394
freq_dev_END
zi = 1.233430e+03
inputZ_TAB
ZI = 1233.43
inputZ_END
Reducing trtol to 1 for xspice 'A' devices
Doing analysis at TEMP = 27.000000 and TNOM = 27.000000


No. of Data Rows : 1
	Node                                  Voltage
	----                                  -------
	----	-------
	out                              4.433671e+00
	n2                               7.268313e-02
	x1.8                             4.434399e+00
	x1.9                             0.000000e+00
	x1.14                            -5.93840e-01
	x1.13                            -5.93867e-01
	inv_in                           -7.96725e-05
	x1.10                            -6.07728e-01
	x1.99                            0.000000e+00
	x1.92                            -4.00000e+01
	x1.91                            4.000000e+01
	x1.90                            1.455194e-02
	x1.54                            -4.00000e+00
	x1.53                            4.000000e+00
	n3                               4.433671e+00
	x1.7                             4.434399e+00
	x1.6                             -1.86134e-03
	x1.12                            4.960294e+00
	x1.11                            4.960373e+00
	in                               0.000000e+00
	vee                              -5.00000e+00
	vcc                              5.000000e+00

	Source	Current
	------	-------

	@c2[i]                           0.000000e+00
	@r2[i]                           0.000000e+00
	@r4[i]                           1.453663e-05
	@r3[i]                           -1.45366e-05
	@r1[i]                           -7.96725e-08
	@c1[i]                           0.000000e+00
	@r.x1.rp[i]                      5.506608e-04
	@r.x1.ro2[i]                     4.434399e-02
	@r.x1.ro1[i]                     1.455194e-05
	@r.x1.ree[i]                     -4.60749e-08
	@r.x1.re2[i]                     7.564538e-06
	@r.x1.re1[i]                     7.549387e-06
	@r.x1.rc2[i]                     7.484710e-06
	@r.x1.rc1[i]                     7.469720e-06
	@r.x1.r2[i]                      -1.86134e-08
	@q.x1.q2[is]                     4.960294e-12
	@q.x1.q2[ib]                     7.983244e-08
	@q.x1.q2[ie]                     -7.56454e-06
	@q.x1.q2[ic]                     7.484705e-06
	@q.x1.q1[is]                     4.960373e-12
	@q.x1.q1[ib]                     7.967254e-08
	@q.x1.q1[ie]                     -7.54939e-06
	@q.x1.q1[ic]                     7.469715e-06
	@g.x1.gcm[i]                     -3.62267e-09
	@g.x1.ga[i]                      1.499071e-08
	@d.x1.dp[id]                     -1.00008e-11
	@d.x1.dln[id]                    -4.00154e-11
	@d.x1.dlp[id]                    -3.99862e-11
	@d.x1.de[id]                     -8.43447e-12
	@d.x1.dc[id]                     1.530447e-08
	@c.x1.c2[i]                      0.000000e+00
	@c.x1.c1[i]                      0.000000e+00
	a$poly$e.x1.egnd#branch_1_0      -1.45980e-05
	vcc#branch                       -5.65600e-04
	vee#branch                       5.658208e-04
	vin#branch                       0.000000e+00
	v.x1.vb#branch                   -1.86134e-08
	v.x1.vc#branch                   -1.53045e-08
	v.x1.ve#branch                   8.434915e-12
	v.x1.vlp#branch                  -3.99862e-11
	v.x1.vln#branch                  -4.00181e-11
	v.x1.vlim#branch                 1.455194e-05
	h.x1.hlim#branch                 -2.91052e-14

 BJT models (Bipolar Junction Transistor)
      model                 x1:qx

       type                   npn
       tnom                    27
         is                 8e-16
         bf                 93.75
         nf                     1
        vaf                     0
        ikf                     0
        ise                     0
         ne                   1.5
         br                     1
         nr                     1
        var                     0
        ikr                     0
        isc                     0
         nc                     2
         rb                     0
        irb                     0
        rbm                     0
         re                     0
         rc                     0
        cje                     0
        vje                  0.75
        mje                  0.33
         tf                     0
        xtf                     0
        vtf                     0
        itf                     0
        ptf                     0
        cjc                     0
        vjc                  0.75
        mjc                  0.33
       xcjc                     1
         tr                     0
        cjs                     0
        vjs                  0.75
        mjs                     0
        xtb                     0
         eg                  1.11
        xti                     3
         fc                   0.5
         kf                     0
         af                     0
        iss                     0
         ns                     1
       tlev                     0
      tlevc                     0
       tbf1                     0
       tbf2                     0
       tbr1                     0
       tbr2                     0
      tikf1                     0
      tikf2                     0
      tikr1                     0
      tikr2                     0
      tirb1                     0
      tirb2                     0
       tnc1                     0
       tnc2                     0
       tne1                     0
       tne2                     0
       tnf1                     0
       tnf2                     0
       tnr1                     0
       tnr2                     0
       trb1                     0
       trb2                     0
       trc1                     0
       trc2                     0
       tre1                     0
       tre2                     0
       trm1                     0
       trm2                     0
      tvaf1                     0
      tvaf2                     0
      tvar1                     0
      tvar2                     0
        ctc                     0
        cte                     0
        cts                     0
       tvjc                     0
       tvje                     0
       tvjs                     0
      titf1                     0
      titf2                     0
       ttf1                     0
       ttf2                     0
       ttr1                     0
       ttr2                     0
      tmje1                     0
      tmje2                     0
      tmjc1                     0
      tmjc2                     0
      tmjs1                     0
      tmjs2                     0
       tns1                     0
       tns2                     0
        nkf                   0.5
       tis1                     0
       tis2                     0
      tise1                     0
      tise2                     0
      tisc1                     0
      tisc2                     0
    vbe_max                 1e+99
    vbc_max                 1e+99
    vce_max                 1e+99

 Capacitor models (Fixed capacitor)
      model                     C

        cap                     0
         cj                     0
       cjsw                     0
       defw                 1e-05
       defl                     0
     narrow                     0
      short                     0
        del                     0
        tc1                     0
        tc2                     0
         di                     0
      thick                     0
     bv_max                 1e+99

 Diode models (Junction Diode model)
      model                 x1:dx

      level                     1
         is                 8e-16
        jsw                     0
         rs                     1
        trs                     0
       trs2                     0
          n                     1
         ns                     1
         tt                     0
       ttt1                     0
       ttt2                     0
        cjo                     0
         vj                     1
          m                   0.5
        tm1                     0
        tm2                     0
        cjp                     0
        php                     1
       mjsw                  0.33
        ikf                     0
        ikr                     0
        nbv                     1
       area                     1
         pj                     0
       tlev                     0
      tlevc                     0
         eg                  1.11
        xti                     3
        cta                     0
        ctp                     0
        tpb                     0
       tphp                     0
       jtun                     0
     jtunsw                     0
       ntun                    30
     xtitun                     3
        keg                     1
         kf                     0
         af                     1
         fc                   0.5
        fcs                   0.5
         bv                     0
        ibv                 0.001
        tcv                     0
     fv_max                 1e+99
     bv_max                 1e+99
        isr                 1e-14
         nr                     1

 Resistor models (Simple linear resistor)
      model                     R

        rsh                     0
     narrow                     0
      short                     0
        tc1                     0
        tc2                     0
        tce                     0
       defw                 1e-05
          l                 1e-05
         kf                     0
         af                     0
          r                     0
     bv_max                 1e+99
         lf                     1
         wf                     1
         ef                     1

 spice2poly models (2G6 compatible polynomial controlled source)
      model        a$poly$f.x1.fb      a$poly$e.x1.egnd

       coef                     0                     0
                        1.061e+07                   0.5
                           -1e+07                   0.5
                            1e+07          
                            1e+07          
                           -1e+07          

 BJT: Bipolar Junction Transistor
     device               q.x1.q2               q.x1.q1
      model                 x1:qx                 x1:qx
         ic           7.48471e-06           7.46971e-06
         ib           7.98324e-08           7.96725e-08
         ie          -7.56454e-06          -7.54939e-06
        vbe               0.59384              0.593788
        vbc              -4.96029              -4.96045
         gm           0.000289377           0.000288797
        gpi           3.08668e-06            3.0805e-06
        gmu                 1e-12                 1e-12
         gx                     0                     0
         go           9.22137e-23           9.22018e-23
        cpi                     0                     0
        cmu                     0                     0
        cbx                     0                     0
       csub                     0                     0

 Capacitor: Fixed capacitor
     device                    c2                    c1               c.x1.c2
      model                     C                     C                     C
capacitance               1.1e-07               2.2e-07                 3e-11
      dtemp                     0                     0                     0
     bv_max                 1e+99                 1e+99                 1e+99
          i                     0                     0                     0
          p                     0                     0                    -0

 Capacitor: Fixed capacitor
     device               c.x1.c1
      model                     C
capacitance             8.661e-12
      dtemp                     0
     bv_max                 1e+99
          i                     0
          p                     0

 CCVS: Linear current controlled current source
     device             h.x1.hlim
          i          -2.91052e-14
          v             0.0145519
          p          -4.23537e-16

 Diode: Junction Diode model
     device               d.x1.dp              d.x1.dln              d.x1.dlp
      model                 x1:dx                 x1:dx                 x1:dx
         vd                   -10              -40.0146              -39.9854
         id          -1.00008e-11          -4.00154e-11          -3.99862e-11
         gd                 1e-12                 1e-12                 1e-12
         cd                     0                     0                     0

 Diode: Junction Diode model
     device               d.x1.de               d.x1.dc
      model                 x1:dx                 x1:dx
         vd              -8.43367              0.433671
         id          -8.43447e-12           1.53045e-08
         gd                 1e-12           5.91692e-07
         cd                     0                     0

 Isource: Independent current source
     device              i.x1.iee
         dc             1.516e-05
          m                     1
      acmag                     0
      pulse         -
        sin         -
        exp         -
        pwl         -
       sffm         -
         am         -
    trnoise         -
   trrandom         -
          v              -4.39227
          p           6.65868e-05
    current             1.516e-05

 Resistor: Simple linear resistor
     device                    r2                    r4                    r3
      model                     R                     R                     R
 resistance                  1000                  5000                300000
         ac                  1000                  5000                300000
      dtemp                     0                     0                     0
     bv_max                 1e+99                 1e+99                 1e+99
      noisy                     1                     1                     1
          i                     0           1.45366e-05          -1.45366e-05
          p                     0           1.05657e-06           6.33941e-05

 Resistor: Simple linear resistor
     device                    r1               r.x1.rp              r.x1.ro2
      model                     R                     R                     R
 resistance                  1000                 18160                   100
         ac                  1000                 18160                   100
      dtemp                     0                     0                     0
     bv_max                 1e+99                 1e+99                 1e+99
      noisy                     1                     1                     1
          i          -7.96725e-08           0.000550661              0.044344
          p           6.34771e-12            0.00550661              0.196639

 Resistor: Simple linear resistor
     device              r.x1.ro1              r.x1.ree              r.x1.re2
      model                     R                     R                     R
 resistance                    50             1.319e+07                  1836
         ac                    50             1.319e+07                  1836
      dtemp                     0                     0                     0
     bv_max                 1e+99                 1e+99                 1e+99
      noisy                     1                     1                     1
          i           1.45519e-05          -4.60749e-08           7.56454e-06
          p           1.05879e-08            2.8001e-08            1.0506e-07

 Resistor: Simple linear resistor
     device              r.x1.re1              r.x1.rc2              r.x1.rc1
      model                     R                     R                     R
 resistance                  1836                  5305                  5305
         ac                  1836                  5305                  5305
      dtemp                     0                     0                     0
     bv_max                 1e+99                 1e+99                 1e+99
      noisy                     1                     1                     1
          i           7.54939e-06           7.48471e-06           7.46972e-06
          p            1.0464e-07           2.97191e-07           2.96002e-07

 Resistor: Simple linear resistor
     device               r.x1.r2
      model                     R
 resistance                100000
         ac                100000
      dtemp                     0
     bv_max                 1e+99
      noisy                     1
          i          -1.86134e-08
          p           3.46458e-11

 VCCS: Voltage controlled current source
     device              g.x1.gcm               g.x1.ga
          m                     0                     0
          i          -3.62267e-09           1.49907e-08
          v            0.00186134           -0.00186134
          p          -6.74301e-12          -2.79028e-11

 Vsource: Independent voltage source
     device              v.x1.vln              v.x1.vlp             v.x1.vlim
         dc                    40                    40                     0
      acmag                     0                     0                     0
      pulse         -         -         -
        sin         -         -         -
        exp         -         -         -
        pwl         -         -         -
       sffm         -         -         -
         am         -         -         -
    trnoise         -         -         -
   trrandom         -         -         -
          i          -4.00181e-11          -3.99862e-11           1.45519e-05
          p           1.60072e-09           1.59945e-09                    -0

 Vsource: Independent voltage source
     device               v.x1.ve               v.x1.vc               v.x1.vb
         dc                     1                     1                     0
      acmag                     0                     0                     0
      pulse         -         -         -
        sin         -         -         -
        exp         -         -         -
        pwl         -         -         -
       sffm         -         -         -
         am         -         -         -
    trnoise         -         -         -
   trrandom         -         -         -
          i           8.43491e-12          -1.53045e-08          -1.86134e-08
          p          -8.43491e-12           1.53045e-08                     0

 Vsource: Independent voltage source
     device                   vin                   vee                   vcc
         dc                     0                    -5                     5
      acmag                     1                     0                     0
      pulse                     0         -         -
                             0.01                    
                             1000                    
        sin                     0         -         -
                             0.01                    
                             1000                    
        exp                     0         -         -
                             0.01                    
                             1000                    
        pwl                     0         -         -
                             0.01                    
                             1000                    
       sffm                     0         -         -
                             0.01                    
                             1000                    
         am                     0         -         -
                             0.01                    
                             1000                    
    trnoise                     0         -         -
                             0.01                    
                             1000                    
   trrandom                     0         -         -
                             0.01                    
                             1000                    
          i                     0           0.000565821            -0.0005656
          p                    -0             0.0028291              0.002828

 spice2poly: 2G6 compatible polynomial controlled source
     device        a$poly$f.x1.fb      a$poly$e.x1.egnd
      model        a$poly$f.x1.fb      a$poly$e.x1.egnd
    acgains             1.061e+07                   0.5
                           -1e+07                   0.5
                            1e+07          
                            1e+07          
                           -1e+07          


Total analysis time (seconds) = 0.057

Total elapsed time (seconds) = 0.105 

Total DRAM available = 4767.438 MB.
DRAM currently available = 2905.492 MB.
Total ngspice program size =   23.711 MB.
Resident set size =   11.949 MB.
Shared ngspice pages =    8.320 MB.
Text (code) pages =    5.070 MB.
Stack = 0 bytes.
Library pages =    3.969 MB.

